Pcp_File_Version=4
*** BLOCK I: ATMOSPHERIC INFORMATION  **********************************
   MaxAL                    (MaxAL = number of atmospheric data-records)
     22
 DailyVar  SinusVar  lLay  lBCCycles lInterc lDummy  lDummy  lDummy  lDummy  lDummy
       f       f       f       f       f       f       f       f       f       f
 hCritS                 (max. allowed pressure head at the soil surface)
      0
       tAtm        Prec       rSoil       rRoot      hCritA          rB          hB          ht    RootDepth
     10.001        0.01           0           0      150000           0           0           0 
         20        1.03           0           0      150000           0           0           0 
         30        1.75           0           0      150000           0           0           0 
         40        1.12           0           0      150000           0           0           0 
         50        0.72           0           0      150000           0           0           0 
         60        0.44           0           0      150000           0           0           0 
         70        0.09           0           0      150000           0           0           0 
         80        0.02           0           0      150000           0           0           0 
         90        0.01           0           0      150000           0           0           0 
        100           0           0           0      150000           0           0           0 
        110           0           0           0      150000           0           0           0 
        120           0           0           0      150000           0           0           0 
        130           0           0           0      150000           0           0           0 
        140           0           0           0      150000           0           0           0 
        150           0           0           0      150000           0           0           0 
        160           0           0           0      150000           0           0           0 
        170           0           0           0      150000           0           0           0 
        180        0.01           0           0      150000           0           0           0 
        190        0.01           0           0      150000           0           0           0 
        200           0           0           0      150000           0           0           0 
        210        0.01           0           0      150000           0           0           0 
        220           0           0           0      150000           0           0           0 
end*** END OF INPUT FILE 'ATMOSPH.IN' **********************************
