Pcp_File_Version=4
*** BLOCK I: ATMOSPHERIC INFORMATION  **********************************
   MaxAL                    (MaxAL = number of atmospheric data-records)
     26
 DailyVar  SinusVar  lLay  lBCCycles lInterc lDummy  lDummy  lDummy  lDummy  lDummy
       f       f       f       f       f       f       f       f       f       f
 hCritS                 (max. allowed pressure head at the soil surface)
      0
       tAtm        Prec       rSoil       rRoot      hCritA          rB          hB          ht    RootDepth
     10.001           0           0           0      150000           0           0           0 
         20           0           0           0      150000           0           0           0 
         30           0           0           0      150000           0           0           0 
         40        0.01           0           0      150000           0           0           0 
         50        0.16           0           0      150000           0           0           0 
         60           0           0           0      150000           0           0           0 
         70           0           0           0      150000           0           0           0 
         80           0           0           0      150000           0           0           0 
         90           0           0           0      150000           0           0           0 
        100           0           0           0      150000           0           0           0 
        110           0           0           0      150000           0           0           0 
        120           0           0           0      150000           0           0           0 
        130        0.43           0           0      150000           0           0           0 
        140        0.17           0           0      150000           0           0           0 
        150        0.62           0           0      150000           0           0           0 
        160        1.18           0           0      150000           0           0           0 
        170        0.71           0           0      150000           0           0           0 
        180        0.38           0           0      150000           0           0           0 
        190        1.28           0           0      150000           0           0           0 
        200        1.41           0           0      150000           0           0           0 
        210        0.99           0           0      150000           0           0           0 
        220        0.77           0           0      150000           0           0           0 
        230        0.17           0           0      150000           0           0           0 
        240           0           0           0      150000           0           0           0 
        250           0           0           0      150000           0           0           0 
        260           0           0           0      150000           0           0           0 
end*** END OF INPUT FILE 'ATMOSPH.IN' **********************************
