Pcp_File_Version=4
    2
    1  0.000000e+000  1.000000e+000  1.000000e+000
    2 -1.000000e+003  1.000000e+000  1.000000e+000
  101    0    0    1 x         h      Mat  Lay      Beta           Axz            Bxz            Dxz          Temp          Conc 
    1 -0.000000e+000  4.090000e-001    1    1  0.000000e+000  1.000000e+000  1.000000e+000  1.000000e+000              
    2 -1.000000e+001  4.090000e-001    1    1  0.000000e+000  1.000000e+000  1.000000e+000  1.000000e+000              
    3 -2.000000e+001  4.090000e-001    1    1  0.000000e+000  1.000000e+000  1.000000e+000  1.000000e+000              
    4 -3.000000e+001  4.090000e-001    1    1  0.000000e+000  1.000000e+000  1.000000e+000  1.000000e+000              
    5 -4.000000e+001  4.090000e-001    1    1  0.000000e+000  1.000000e+000  1.000000e+000  1.000000e+000              
    6 -5.000000e+001  4.090000e-001    1    1  0.000000e+000  1.000000e+000  1.000000e+000  1.000000e+000              
    7 -6.000000e+001  4.090000e-001    2    1  0.000000e+000  1.000000e+000  1.000000e+000  1.000000e+000              
    8 -7.000000e+001  4.090000e-001    2    1  0.000000e+000  1.000000e+000  1.000000e+000  1.000000e+000              
    9 -8.000000e+001  4.090000e-001    2    1  0.000000e+000  1.000000e+000  1.000000e+000  1.000000e+000              
   10 -9.000000e+001  4.090000e-001    2    1  0.000000e+000  1.000000e+000  1.000000e+000  1.000000e+000              
   11 -1.000000e+002  4.090000e-001    2    1  0.000000e+000  1.000000e+000  1.000000e+000  1.000000e+000              
   12 -1.100000e+002  4.090000e-001    2    1  0.000000e+000  1.000000e+000  1.000000e+000  1.000000e+000              
   13 -1.200000e+002  4.090000e-001    2    1  0.000000e+000  1.000000e+000  1.000000e+000  1.000000e+000              
   14 -1.300000e+002  4.090000e-001    2    1  0.000000e+000  1.000000e+000  1.000000e+000  1.000000e+000              
   15 -1.400000e+002  4.090000e-001    2    1  0.000000e+000  1.000000e+000  1.000000e+000  1.000000e+000              
   16 -1.500000e+002  4.090000e-001    2    1  0.000000e+000  1.000000e+000  1.000000e+000  1.000000e+000              
   17 -1.600000e+002  4.090000e-001    2    1  0.000000e+000  1.000000e+000  1.000000e+000  1.000000e+000              
   18 -1.700000e+002  4.090000e-001    2    1  0.000000e+000  1.000000e+000  1.000000e+000  1.000000e+000              
   19 -1.800000e+002  4.090000e-001    2    1  0.000000e+000  1.000000e+000  1.000000e+000  1.000000e+000              
   20 -1.900000e+002  4.090000e-001    2    1  0.000000e+000  1.000000e+000  1.000000e+000  1.000000e+000              
   21 -2.000000e+002  4.090000e-001    2    1  0.000000e+000  1.000000e+000  1.000000e+000  1.000000e+000              
   22 -2.100000e+002  4.126400e-001    2    1  0.000000e+000  1.000000e+000  1.000000e+000  1.000000e+000              
   23 -2.200000e+002  4.162800e-001    2    1  0.000000e+000  1.000000e+000  1.000000e+000  1.000000e+000              
   24 -2.300000e+002  4.199200e-001    2    1  0.000000e+000  1.000000e+000  1.000000e+000  1.000000e+000              
   25 -2.400000e+002  4.235600e-001    2    1  0.000000e+000  1.000000e+000  1.000000e+000  1.000000e+000              
   26 -2.500000e+002  4.272000e-001    2    1  0.000000e+000  1.000000e+000  1.000000e+000  1.000000e+000              
   27 -2.600000e+002  4.308400e-001    2    1  0.000000e+000  1.000000e+000  1.000000e+000  1.000000e+000              
   28 -2.700000e+002  4.344800e-001    2    1  0.000000e+000  1.000000e+000  1.000000e+000  1.000000e+000              
   29 -2.800000e+002  4.381200e-001    2    1  0.000000e+000  1.000000e+000  1.000000e+000  1.000000e+000              
   30 -2.900000e+002  4.417600e-001    2    1  0.000000e+000  1.000000e+000  1.000000e+000  1.000000e+000              
   31 -3.000000e+002  4.454000e-001    2    1  0.000000e+000  1.000000e+000  1.000000e+000  1.000000e+000              
   32 -3.100000e+002  4.490400e-001    2    1  0.000000e+000  1.000000e+000  1.000000e+000  1.000000e+000              
   33 -3.200000e+002  4.526800e-001    2    1  0.000000e+000  1.000000e+000  1.000000e+000  1.000000e+000              
   34 -3.300000e+002  4.563200e-001    2    1  0.000000e+000  1.000000e+000  1.000000e+000  1.000000e+000              
   35 -3.400000e+002  4.599600e-001    2    1  0.000000e+000  1.000000e+000  1.000000e+000  1.000000e+000              
   36 -3.500000e+002  4.636000e-001    2    1  0.000000e+000  1.000000e+000  1.000000e+000  1.000000e+000              
   37 -3.600000e+002  4.672400e-001    2    1  0.000000e+000  1.000000e+000  1.000000e+000  1.000000e+000              
   38 -3.700000e+002  4.708800e-001    2    1  0.000000e+000  1.000000e+000  1.000000e+000  1.000000e+000              
   39 -3.800000e+002  4.745200e-001    2    1  0.000000e+000  1.000000e+000  1.000000e+000  1.000000e+000              
   40 -3.900000e+002  4.781600e-001    2    1  0.000000e+000  1.000000e+000  1.000000e+000  1.000000e+000              
   41 -4.000000e+002  4.818000e-001    2    1  0.000000e+000  1.000000e+000  1.000000e+000  1.000000e+000              
   42 -4.100000e+002  4.816290e-001    2    1  0.000000e+000  1.000000e+000  1.000000e+000  1.000000e+000              
   43 -4.200000e+002  4.814570e-001    2    1  0.000000e+000  1.000000e+000  1.000000e+000  1.000000e+000              
   44 -4.300000e+002  4.812860e-001    2    1  0.000000e+000  1.000000e+000  1.000000e+000  1.000000e+000              
   45 -4.400000e+002  4.811140e-001    2    1  0.000000e+000  1.000000e+000  1.000000e+000  1.000000e+000              
   46 -4.500000e+002  4.809430e-001    2    1  0.000000e+000  1.000000e+000  1.000000e+000  1.000000e+000              
   47 -4.600000e+002  4.807710e-001    2    1  0.000000e+000  1.000000e+000  1.000000e+000  1.000000e+000              
   48 -4.700000e+002  4.806000e-001    2    1  0.000000e+000  1.000000e+000  1.000000e+000  1.000000e+000              
   49 -4.800000e+002  4.804290e-001    2    1  0.000000e+000  1.000000e+000  1.000000e+000  1.000000e+000              
   50 -4.900000e+002  4.802570e-001    2    1  0.000000e+000  1.000000e+000  1.000000e+000  1.000000e+000              
   51 -5.000000e+002  4.800860e-001    2    1  0.000000e+000  1.000000e+000  1.000000e+000  1.000000e+000              
   52 -5.100000e+002  4.799140e-001    2    1  0.000000e+000  1.000000e+000  1.000000e+000  1.000000e+000              
   53 -5.200000e+002  4.797430e-001    2    1  0.000000e+000  1.000000e+000  1.000000e+000  1.000000e+000              
   54 -5.300000e+002  4.795710e-001    2    1  0.000000e+000  1.000000e+000  1.000000e+000  1.000000e+000              
   55 -5.400000e+002  4.794000e-001    2    1  0.000000e+000  1.000000e+000  1.000000e+000  1.000000e+000              
   56 -5.500000e+002  4.792290e-001    2    1  0.000000e+000  1.000000e+000  1.000000e+000  1.000000e+000              
   57 -5.600000e+002  4.790570e-001    2    1  0.000000e+000  1.000000e+000  1.000000e+000  1.000000e+000              
   58 -5.700000e+002  4.788860e-001    2    1  0.000000e+000  1.000000e+000  1.000000e+000  1.000000e+000              
   59 -5.800000e+002  4.787140e-001    2    1  0.000000e+000  1.000000e+000  1.000000e+000  1.000000e+000              
   60 -5.900000e+002  4.785430e-001    2    1  0.000000e+000  1.000000e+000  1.000000e+000  1.000000e+000              
   61 -6.000000e+002  4.783710e-001    2    1  0.000000e+000  1.000000e+000  1.000000e+000  1.000000e+000              
   62 -6.100000e+002  4.782000e-001    2    1  0.000000e+000  1.000000e+000  1.000000e+000  1.000000e+000              
   63 -6.200000e+002  4.780290e-001    2    1  0.000000e+000  1.000000e+000  1.000000e+000  1.000000e+000              
   64 -6.300000e+002  4.778570e-001    2    1  0.000000e+000  1.000000e+000  1.000000e+000  1.000000e+000              
   65 -6.400000e+002  4.776860e-001    2    1  0.000000e+000  1.000000e+000  1.000000e+000  1.000000e+000              
   66 -6.500000e+002  4.775140e-001    2    1  0.000000e+000  1.000000e+000  1.000000e+000  1.000000e+000              
   67 -6.600000e+002  4.773430e-001    2    1  0.000000e+000  1.000000e+000  1.000000e+000  1.000000e+000              
   68 -6.700000e+002  4.771710e-001    2    1  0.000000e+000  1.000000e+000  1.000000e+000  1.000000e+000              
   69 -6.800000e+002  4.770000e-001    2    1  0.000000e+000  1.000000e+000  1.000000e+000  1.000000e+000              
   70 -6.900000e+002  4.768290e-001    2    1  0.000000e+000  1.000000e+000  1.000000e+000  1.000000e+000              
   71 -7.000000e+002  4.766570e-001    2    1  0.000000e+000  1.000000e+000  1.000000e+000  1.000000e+000              
   72 -7.100000e+002  4.764860e-001    2    1  0.000000e+000  1.000000e+000  1.000000e+000  1.000000e+000              
   73 -7.200000e+002  4.763140e-001    2    1  0.000000e+000  1.000000e+000  1.000000e+000  1.000000e+000              
   74 -7.300000e+002  4.761430e-001    2    1  0.000000e+000  1.000000e+000  1.000000e+000  1.000000e+000              
   75 -7.400000e+002  4.759710e-001    2    1  0.000000e+000  1.000000e+000  1.000000e+000  1.000000e+000              
   76 -7.500000e+002  4.758000e-001    2    1  0.000000e+000  1.000000e+000  1.000000e+000  1.000000e+000              
   77 -7.600000e+002  4.765400e-001    2    1  0.000000e+000  1.000000e+000  1.000000e+000  1.000000e+000              
   78 -7.700000e+002  4.772800e-001    2    1  0.000000e+000  1.000000e+000  1.000000e+000  1.000000e+000              
   79 -7.800000e+002  4.780200e-001    2    1  0.000000e+000  1.000000e+000  1.000000e+000  1.000000e+000              
   80 -7.900000e+002  4.787600e-001    2    1  0.000000e+000  1.000000e+000  1.000000e+000  1.000000e+000              
   81 -8.000000e+002  4.795000e-001    2    1  0.000000e+000  1.000000e+000  1.000000e+000  1.000000e+000              
   82 -8.100000e+002  4.802400e-001    2    1  0.000000e+000  1.000000e+000  1.000000e+000  1.000000e+000              
   83 -8.200000e+002  4.809800e-001    2    1  0.000000e+000  1.000000e+000  1.000000e+000  1.000000e+000              
   84 -8.300000e+002  4.817200e-001    2    1  0.000000e+000  1.000000e+000  1.000000e+000  1.000000e+000              
   85 -8.400000e+002  4.824600e-001    2    1  0.000000e+000  1.000000e+000  1.000000e+000  1.000000e+000              
   86 -8.500000e+002  4.832000e-001    2    1  0.000000e+000  1.000000e+000  1.000000e+000  1.000000e+000              
   87 -8.600000e+002  4.839400e-001    2    1  0.000000e+000  1.000000e+000  1.000000e+000  1.000000e+000              
   88 -8.700000e+002  4.846800e-001    2    1  0.000000e+000  1.000000e+000  1.000000e+000  1.000000e+000              
   89 -8.800000e+002  4.854200e-001    2    1  0.000000e+000  1.000000e+000  1.000000e+000  1.000000e+000              
   90 -8.900000e+002  4.861600e-001    2    1  0.000000e+000  1.000000e+000  1.000000e+000  1.000000e+000              
   91 -9.000000e+002  4.869000e-001    2    1  0.000000e+000  1.000000e+000  1.000000e+000  1.000000e+000              
   92 -9.100000e+002  4.876400e-001    2    1  0.000000e+000  1.000000e+000  1.000000e+000  1.000000e+000              
   93 -9.200000e+002  4.883800e-001    2    1  0.000000e+000  1.000000e+000  1.000000e+000  1.000000e+000              
   94 -9.300000e+002  4.891200e-001    2    1  0.000000e+000  1.000000e+000  1.000000e+000  1.000000e+000              
   95 -9.400000e+002  4.898600e-001    2    1  0.000000e+000  1.000000e+000  1.000000e+000  1.000000e+000              
   96 -9.500000e+002  4.906000e-001    2    1  0.000000e+000  1.000000e+000  1.000000e+000  1.000000e+000              
   97 -9.600000e+002  4.913400e-001    2    1  0.000000e+000  1.000000e+000  1.000000e+000  1.000000e+000              
   98 -9.700000e+002  4.920800e-001    2    1  0.000000e+000  1.000000e+000  1.000000e+000  1.000000e+000              
   99 -9.800000e+002  4.928200e-001    2    1  0.000000e+000  1.000000e+000  1.000000e+000  1.000000e+000              
  100 -9.900000e+002  4.935600e-001    2    1  0.000000e+000  1.000000e+000  1.000000e+000  1.000000e+000              
  101 -1.000000e+003  4.943000e-001    2    1  0.000000e+000  1.000000e+000  1.000000e+000  1.000000e+000              
    5
    1   11   31   51  101
