Pcp_File_Version=4
    2
    1  0.000000e+000  1.000000e+000  1.000000e+000
    2 -1.000000e+003  1.000000e+000  1.000000e+000
  101    0    0    1 x         h      Mat  Lay      Beta           Axz            Bxz            Dxz          Temp          Conc 
    1 -0.000000e+000  3.810000e-001    1    1  0.000000e+000  1.000000e+000  1.000000e+000  1.000000e+000              
    2 -1.000000e+001  3.810000e-001    1    1  0.000000e+000  1.000000e+000  1.000000e+000  1.000000e+000              
    3 -2.000000e+001  3.810000e-001    1    1  0.000000e+000  1.000000e+000  1.000000e+000  1.000000e+000              
    4 -3.000000e+001  3.810000e-001    1    1  0.000000e+000  1.000000e+000  1.000000e+000  1.000000e+000              
    5 -4.000000e+001  3.810000e-001    1    1  0.000000e+000  1.000000e+000  1.000000e+000  1.000000e+000              
    6 -5.000000e+001  3.810000e-001    1    1  0.000000e+000  1.000000e+000  1.000000e+000  1.000000e+000              
    7 -6.000000e+001  3.810000e-001    2    1  0.000000e+000  1.000000e+000  1.000000e+000  1.000000e+000              
    8 -7.000000e+001  3.810000e-001    2    1  0.000000e+000  1.000000e+000  1.000000e+000  1.000000e+000              
    9 -8.000000e+001  3.810000e-001    2    1  0.000000e+000  1.000000e+000  1.000000e+000  1.000000e+000              
   10 -9.000000e+001  3.810000e-001    2    1  0.000000e+000  1.000000e+000  1.000000e+000  1.000000e+000              
   11 -1.000000e+002  3.810000e-001    2    1  0.000000e+000  1.000000e+000  1.000000e+000  1.000000e+000              
   12 -1.100000e+002  3.810000e-001    2    1  0.000000e+000  1.000000e+000  1.000000e+000  1.000000e+000              
   13 -1.200000e+002  3.810000e-001    2    1  0.000000e+000  1.000000e+000  1.000000e+000  1.000000e+000              
   14 -1.300000e+002  3.810000e-001    2    1  0.000000e+000  1.000000e+000  1.000000e+000  1.000000e+000              
   15 -1.400000e+002  3.810000e-001    2    1  0.000000e+000  1.000000e+000  1.000000e+000  1.000000e+000              
   16 -1.500000e+002  3.810000e-001    2    1  0.000000e+000  1.000000e+000  1.000000e+000  1.000000e+000              
   17 -1.600000e+002  3.810000e-001    2    1  0.000000e+000  1.000000e+000  1.000000e+000  1.000000e+000              
   18 -1.700000e+002  3.810000e-001    2    1  0.000000e+000  1.000000e+000  1.000000e+000  1.000000e+000              
   19 -1.800000e+002  3.810000e-001    2    1  0.000000e+000  1.000000e+000  1.000000e+000  1.000000e+000              
   20 -1.900000e+002  3.810000e-001    2    1  0.000000e+000  1.000000e+000  1.000000e+000  1.000000e+000              
   21 -2.000000e+002  3.810000e-001    2    1  0.000000e+000  1.000000e+000  1.000000e+000  1.000000e+000              
   22 -2.100000e+002  3.885800e-001    2    1  0.000000e+000  1.000000e+000  1.000000e+000  1.000000e+000              
   23 -2.200000e+002  3.961600e-001    2    1  0.000000e+000  1.000000e+000  1.000000e+000  1.000000e+000              
   24 -2.300000e+002  4.037400e-001    2    1  0.000000e+000  1.000000e+000  1.000000e+000  1.000000e+000              
   25 -2.400000e+002  4.113200e-001    2    1  0.000000e+000  1.000000e+000  1.000000e+000  1.000000e+000              
   26 -2.500000e+002  4.189000e-001    2    1  0.000000e+000  1.000000e+000  1.000000e+000  1.000000e+000              
   27 -2.600000e+002  4.264800e-001    2    1  0.000000e+000  1.000000e+000  1.000000e+000  1.000000e+000              
   28 -2.700000e+002  4.340600e-001    2    1  0.000000e+000  1.000000e+000  1.000000e+000  1.000000e+000              
   29 -2.800000e+002  4.416400e-001    2    1  0.000000e+000  1.000000e+000  1.000000e+000  1.000000e+000              
   30 -2.900000e+002  4.492200e-001    2    1  0.000000e+000  1.000000e+000  1.000000e+000  1.000000e+000              
   31 -3.000000e+002  4.568000e-001    2    1  0.000000e+000  1.000000e+000  1.000000e+000  1.000000e+000              
   32 -3.100000e+002  4.643800e-001    2    1  0.000000e+000  1.000000e+000  1.000000e+000  1.000000e+000              
   33 -3.200000e+002  4.719600e-001    2    1  0.000000e+000  1.000000e+000  1.000000e+000  1.000000e+000              
   34 -3.300000e+002  4.795400e-001    2    1  0.000000e+000  1.000000e+000  1.000000e+000  1.000000e+000              
   35 -3.400000e+002  4.871200e-001    2    1  0.000000e+000  1.000000e+000  1.000000e+000  1.000000e+000              
   36 -3.500000e+002  4.947000e-001    2    1  0.000000e+000  1.000000e+000  1.000000e+000  1.000000e+000              
   37 -3.600000e+002  5.022800e-001    2    1  0.000000e+000  1.000000e+000  1.000000e+000  1.000000e+000              
   38 -3.700000e+002  5.098600e-001    2    1  0.000000e+000  1.000000e+000  1.000000e+000  1.000000e+000              
   39 -3.800000e+002  5.174400e-001    2    1  0.000000e+000  1.000000e+000  1.000000e+000  1.000000e+000              
   40 -3.900000e+002  5.250200e-001    2    1  0.000000e+000  1.000000e+000  1.000000e+000  1.000000e+000              
   41 -4.000000e+002  5.326000e-001    2    1  0.000000e+000  1.000000e+000  1.000000e+000  1.000000e+000              
   42 -4.100000e+002  5.307430e-001    2    1  0.000000e+000  1.000000e+000  1.000000e+000  1.000000e+000              
   43 -4.200000e+002  5.288860e-001    2    1  0.000000e+000  1.000000e+000  1.000000e+000  1.000000e+000              
   44 -4.300000e+002  5.270290e-001    2    1  0.000000e+000  1.000000e+000  1.000000e+000  1.000000e+000              
   45 -4.400000e+002  5.251710e-001    2    1  0.000000e+000  1.000000e+000  1.000000e+000  1.000000e+000              
   46 -4.500000e+002  5.233140e-001    2    1  0.000000e+000  1.000000e+000  1.000000e+000  1.000000e+000              
   47 -4.600000e+002  5.214570e-001    2    1  0.000000e+000  1.000000e+000  1.000000e+000  1.000000e+000              
   48 -4.700000e+002  5.196000e-001    2    1  0.000000e+000  1.000000e+000  1.000000e+000  1.000000e+000              
   49 -4.800000e+002  5.177430e-001    2    1  0.000000e+000  1.000000e+000  1.000000e+000  1.000000e+000              
   50 -4.900000e+002  5.158860e-001    2    1  0.000000e+000  1.000000e+000  1.000000e+000  1.000000e+000              
   51 -5.000000e+002  5.140280e-001    2    1  0.000000e+000  1.000000e+000  1.000000e+000  1.000000e+000              
   52 -5.100000e+002  5.121710e-001    2    1  0.000000e+000  1.000000e+000  1.000000e+000  1.000000e+000              
   53 -5.200000e+002  5.103140e-001    2    1  0.000000e+000  1.000000e+000  1.000000e+000  1.000000e+000              
   54 -5.300000e+002  5.084570e-001    2    1  0.000000e+000  1.000000e+000  1.000000e+000  1.000000e+000              
   55 -5.400000e+002  5.066000e-001    2    1  0.000000e+000  1.000000e+000  1.000000e+000  1.000000e+000              
   56 -5.500000e+002  5.047430e-001    2    1  0.000000e+000  1.000000e+000  1.000000e+000  1.000000e+000              
   57 -5.600000e+002  5.028860e-001    2    1  0.000000e+000  1.000000e+000  1.000000e+000  1.000000e+000              
   58 -5.700000e+002  5.010280e-001    2    1  0.000000e+000  1.000000e+000  1.000000e+000  1.000000e+000              
   59 -5.800000e+002  4.991710e-001    2    1  0.000000e+000  1.000000e+000  1.000000e+000  1.000000e+000              
   60 -5.900000e+002  4.973140e-001    2    1  0.000000e+000  1.000000e+000  1.000000e+000  1.000000e+000              
   61 -6.000000e+002  4.954570e-001    2    1  0.000000e+000  1.000000e+000  1.000000e+000  1.000000e+000              
   62 -6.100000e+002  4.936000e-001    2    1  0.000000e+000  1.000000e+000  1.000000e+000  1.000000e+000              
   63 -6.200000e+002  4.917430e-001    2    1  0.000000e+000  1.000000e+000  1.000000e+000  1.000000e+000              
   64 -6.300000e+002  4.898860e-001    2    1  0.000000e+000  1.000000e+000  1.000000e+000  1.000000e+000              
   65 -6.400000e+002  4.880290e-001    2    1  0.000000e+000  1.000000e+000  1.000000e+000  1.000000e+000              
   66 -6.500000e+002  4.861710e-001    2    1  0.000000e+000  1.000000e+000  1.000000e+000  1.000000e+000              
   67 -6.600000e+002  4.843140e-001    2    1  0.000000e+000  1.000000e+000  1.000000e+000  1.000000e+000              
   68 -6.700000e+002  4.824570e-001    2    1  0.000000e+000  1.000000e+000  1.000000e+000  1.000000e+000              
   69 -6.800000e+002  4.806000e-001    2    1  0.000000e+000  1.000000e+000  1.000000e+000  1.000000e+000              
   70 -6.900000e+002  4.787430e-001    2    1  0.000000e+000  1.000000e+000  1.000000e+000  1.000000e+000              
   71 -7.000000e+002  4.768860e-001    2    1  0.000000e+000  1.000000e+000  1.000000e+000  1.000000e+000              
   72 -7.100000e+002  4.750290e-001    2    1  0.000000e+000  1.000000e+000  1.000000e+000  1.000000e+000              
   73 -7.200000e+002  4.731710e-001    2    1  0.000000e+000  1.000000e+000  1.000000e+000  1.000000e+000              
   74 -7.300000e+002  4.713140e-001    2    1  0.000000e+000  1.000000e+000  1.000000e+000  1.000000e+000              
   75 -7.400000e+002  4.694570e-001    2    1  0.000000e+000  1.000000e+000  1.000000e+000  1.000000e+000              
   76 -7.500000e+002  4.676000e-001    2    1  0.000000e+000  1.000000e+000  1.000000e+000  1.000000e+000              
   77 -7.600000e+002  4.681120e-001    2    1  0.000000e+000  1.000000e+000  1.000000e+000  1.000000e+000              
   78 -7.700000e+002  4.686240e-001    2    1  0.000000e+000  1.000000e+000  1.000000e+000  1.000000e+000              
   79 -7.800000e+002  4.691360e-001    2    1  0.000000e+000  1.000000e+000  1.000000e+000  1.000000e+000              
   80 -7.900000e+002  4.696480e-001    2    1  0.000000e+000  1.000000e+000  1.000000e+000  1.000000e+000              
   81 -8.000000e+002  4.701600e-001    2    1  0.000000e+000  1.000000e+000  1.000000e+000  1.000000e+000              
   82 -8.100000e+002  4.706720e-001    2    1  0.000000e+000  1.000000e+000  1.000000e+000  1.000000e+000              
   83 -8.200000e+002  4.711840e-001    2    1  0.000000e+000  1.000000e+000  1.000000e+000  1.000000e+000              
   84 -8.300000e+002  4.716960e-001    2    1  0.000000e+000  1.000000e+000  1.000000e+000  1.000000e+000              
   85 -8.400000e+002  4.722080e-001    2    1  0.000000e+000  1.000000e+000  1.000000e+000  1.000000e+000              
   86 -8.500000e+002  4.727200e-001    2    1  0.000000e+000  1.000000e+000  1.000000e+000  1.000000e+000              
   87 -8.600000e+002  4.732320e-001    2    1  0.000000e+000  1.000000e+000  1.000000e+000  1.000000e+000              
   88 -8.700000e+002  4.737440e-001    2    1  0.000000e+000  1.000000e+000  1.000000e+000  1.000000e+000              
   89 -8.800000e+002  4.742560e-001    2    1  0.000000e+000  1.000000e+000  1.000000e+000  1.000000e+000              
   90 -8.900000e+002  4.747680e-001    2    1  0.000000e+000  1.000000e+000  1.000000e+000  1.000000e+000              
   91 -9.000000e+002  4.752800e-001    2    1  0.000000e+000  1.000000e+000  1.000000e+000  1.000000e+000              
   92 -9.100000e+002  4.757920e-001    2    1  0.000000e+000  1.000000e+000  1.000000e+000  1.000000e+000              
   93 -9.200000e+002  4.763040e-001    2    1  0.000000e+000  1.000000e+000  1.000000e+000  1.000000e+000              
   94 -9.300000e+002  4.768160e-001    2    1  0.000000e+000  1.000000e+000  1.000000e+000  1.000000e+000              
   95 -9.400000e+002  4.773280e-001    2    1  0.000000e+000  1.000000e+000  1.000000e+000  1.000000e+000              
   96 -9.500000e+002  4.778400e-001    2    1  0.000000e+000  1.000000e+000  1.000000e+000  1.000000e+000              
   97 -9.600000e+002  4.783520e-001    2    1  0.000000e+000  1.000000e+000  1.000000e+000  1.000000e+000              
   98 -9.700000e+002  4.788640e-001    2    1  0.000000e+000  1.000000e+000  1.000000e+000  1.000000e+000              
   99 -9.800000e+002  4.793760e-001    2    1  0.000000e+000  1.000000e+000  1.000000e+000  1.000000e+000              
  100 -9.900000e+002  4.798880e-001    2    1  0.000000e+000  1.000000e+000  1.000000e+000  1.000000e+000              
  101 -1.000000e+003  4.804000e-001    2    1  0.000000e+000  1.000000e+000  1.000000e+000  1.000000e+000              
    5
    1   11   31   51  101
