Pcp_File_Version=4
*** BLOCK I: ATMOSPHERIC INFORMATION  **********************************
   MaxAL                    (MaxAL = number of atmospheric data-records)
     18
 DailyVar  SinusVar  lLay  lBCCycles lInterc lDummy  lDummy  lDummy  lDummy  lDummy
       f       f       f       f       f       f       f       f       f       f
 hCritS                 (max. allowed pressure head at the soil surface)
      0
       tAtm        Prec       rSoil       rRoot      hCritA          rB          hB          ht    RootDepth
     10.001        0.05           0           0      150000           0           0           0 
         20        0.01           0           0      150000           0           0           0 
         30        0.01           0           0      150000           0           0           0 
         40           0           0           0      150000           0           0           0 
         50           0           0           0      150000           0           0           0 
         60           0           0           0      150000           0           0           0 
         70           0           0           0      150000           0           0           0 
         80        0.03           0           0      150000           0           0           0 
         90        0.56           0           0      150000           0           0           0 
        100        0.35           0           0      150000           0           0           0 
        110        0.15           0           0      150000           0           0           0 
        120        0.91           0           0      150000           0           0           0 
        130         0.8           0           0      150000           0           0           0 
        140        0.19           0           0      150000           0           0           0 
        150        0.08           0           0      150000           0           0           0 
        160        0.06           0           0      150000           0           0           0 
        170        0.01           0           0      150000           0           0           0 
        180           0           0           0           0           0           0           0 
end*** END OF INPUT FILE 'ATMOSPH.IN' **********************************
